testData/tamu2000/pfcases_100_zone2326/Equ_tx2000_hr_5179_mod_v23_zone23_26_pslf.raw
0  100.000 
THIS IS A SYNTHETIC POWER SYSTEM MODEL THAT DOES NOT REPRESE
DATA RESEARCH PROJECT AND CONTAINS NO CEII.
1012,  1,  -4.168,  -6.854,  0.000,  0.000,  1,  1.02985,  -133.6318,  'SANDERSO',  115.00,  9
1033,  1,  65.345,  -37.856,  0.000,  0.000,  1,  1.01137,  -119.7040,  'MCCAMEY ',  230.00,  9
1046,  1,  1.450,  -5.833,  0.000,  0.000,  1,  1.02990,  -133.3631,  'OZONA 0 ',  115.00,  9
1048,  2,  143.115,  21.147,  0.000,  0.000,  1,  1.00000,  -89.6593,  'MONAHANS',  18.000,  9
1049,  2,  102.562,  29.638,  0.000,  0.000,  1,  1.00000,  -79.2231,  'MONAHANS',  18.000,  9
1053,  2,  83.518,  -13.732,  0.000,  0.000,  1,  1.00000,  -110.0378,  'MONAHANS',  230.00,  9
1072,  3,  84.002,  1.320,  0.000,  0.000,  1,  1.01000,  -110.6337,  'ODESSA 1',  18.000,  9
1073,  2,  53.255,  3.303,  0.000,  0.000,  1,  1.01000,  -107.2978,  'ODESSA 1',  18.000,  9
1074,  2,  55.127,  6.093,  0.000,  0.000,  1,  1.01000,  -107.7488,  'ODESSA 1',  18.000,  9
1075,  2,  66.540,  6.351,  0.000,  0.000,  1,  1.01000,  -109.6996,  'ODESSA 1',  18.000,  9
1076,  2,  153.613,  -5.547,  0.000,  0.000,  1,  1.01000,  -113.6323,  'ODESSA 1',  18.000,  9
1077,  2,  56.697,  5.644,  0.000,  0.000,  1,  1.01000,  -108.0683,  'ODESSA 1',  18.000,  9
1081,  2,  143.995,  -34.085,  0.000,  0.000,  1,  1.01000,  -114.8684,  'ODESSA 1',  230.00,  9
2004,  2,  136.721,  -13.414,  0.000,  0.000,  2,  1.02000,  -124.5164,  'SAVOY 2 ',  13.800,  11
2005,  2,  117.788,  -11.709,  0.000,  0.000,  2,  1.02000,  -124.3556,  'SAVOY 3 ',  13.800,  11
2006,  2,  78.283,  -6.671,  0.000,  0.000,  2,  1.02000,  -123.7327,  'SAVOY 4 ',  13.800,  11
2019,  2,  84.054,  -23.309,  0.000,  0.000,  2,  1.04000,  -126.3977,  'PANHANDL',  20.000,  10
2024,  2,  98.235,  -4.192,  0.000,  0.000,  2,  1.02000,  -122.0809,  'PARIS 2 ',  13.800,  11
2057,  3,  232.840,  -63.150,  0.000,  0.000,  2,  0.99000,  -123.7791,  'WICHITA ',  18.000,  11
2071,  2,  31.290,  -5.033,  0.000,  0.000,  2,  1.00000,  -124.3613,  'ARCHER 2',  18.000,  11
2103,  2,  185.128,  -16.671,  0.000,  0.000,  2,  1.01863,  -125.7332,  'SHERMAN ',  20.000,  11
2104,  2,  140.393,  -12.190,  0.000,  0.000,  2,  1.01748,  -125.5604,  'SHERMAN ',  20.000,  11
2105,  2,  83.096,  -8.672,  0.000,  0.000,  2,  1.01483,  -125.1325,  'SHERMAN ',  20.000,  11
2115,  2,  72.579,  -5.324,  0.000,  0.000,  2,  1.01320,  -120.5807,  'PARIS 1 ',  13.800,  11
2116,  2,  120.814,  -6.636,  0.000,  0.000,  2,  1.01720,  -121.9483,  'PARIS 1 ',  13.800,  11
2117,  2,  65.951,  -4.481,  0.000,  0.000,  2,  1.01108,  -120.1299,  'PARIS 1 ',  13.800,  11
2118,  2,  66.290,  -4.419,  0.000,  0.000,  2,  1.00999,  -119.7702,  'PARIS 1 ',  13.800,  11
2119,  2,  96.467,  -5.709,  0.000,  0.000,  2,  1.01625,  -121.6266,  'PARIS 1 ',  13.800,  11
2120,  2,  66.104,  -4.608,  0.000,  0.000,  2,  1.01062,  -119.9139,  'PARIS 1 ',  13.800,  11
2123,  2,  26.257,  -19.782,  0.000,  0.000,  2,  1.02806,  -125.1691,  'PANHANDL',  161.00,  10
3001,  1,  0.000,  0.000,  0.000,  0.000,  3,  0.98030,  -126.0825,  'KERRVILL',  230.00,  28
3002,  1,  0.000,  0.000,  0.000,  0.000,  3,  0.95861,  -130.4092,  'KERRVILL',  115.00,  28
3005,  1,  0.000,  0.000,  0.000,  0.000,  3,  0.87231,  -147.8381,  'LEAKEY 0',  115.00,  28
3008,  1,  61.318,  -4.985,  0.000,  0.000,  3,  1.01964,  -137.8028,  'COLEMAN ',  115.00,  27
3009,  1,  0.000,  0.000,  0.000,  0.000,  3,  1.02785,  -137.4604,  'SONORA 0',  115.00,  28
3010,  1,  0.000,  0.000,  0.000,  0.000,  3,  0.89989,  -149.1492,  'CAMP WOO',  115.00,  28
3011,  1,  0.000,  0.000,  0.000,  0.000,  3,  0.94122,  -136.6763,  'LLANO 0 ',  115.00,  28
3012,  1,  0.000,  0.000,  0.000,  0.000,  3,  0.92601,  -137.9460,  'WILLOW C',  115.00,  28
3014,  1,  0.000,  0.000,  0.000,  0.000,  3,  1.00269,  -127.0438,  'KINGSLAN',  115.00,  28
3018,  1,  0.122,  -20.341,  0.000,  0.000,  3,  1.02960,  -134.1841,  'CHRISTOV',  230.00,  27
3019,  1,  158.107,  -11.693,  0.000,  0.000,  3,  1.02991,  -136.0001,  'CHRISTOV',  115.00,  27
3024,  1,  0.000,  0.000,  0.000,  0.000,  3,  1.02762,  -136.7506,  'ELDORADO',  115.00,  28
3025,  1,  0.000,  0.000,  0.000,  0.000,  3,  1.00997,  -133.1076,  'SAN SABA',  115.00,  28
3028,  2,  83.127,  -1.401,  0.000,  0.000,  3,  1.04000,  -127.0692,  'ABILENE ',  18.000,  27
3029,  1,  0.000,  0.000,  0.000,  0.000,  3,  1.01784,  -129.0737,  'LOMETA 0',  115.00,  28
3035,  1,  0.000,  0.000,  0.000,  0.000,  3,  1.00967,  -135.5404,  'CHEROKEE',  115.00,  28
3036,  1,  0.000,  0.000,  0.000,  0.000,  3,  1.01378,  -136.6413,  'RICHLAND',  115.00,  28
3045,  2,  60.097,  0.431,  0.000,  0.000,  3,  1.04000,  -116.3497,  'SILVER 4',  13.800,  27
3048,  1,  451.432,  -418.471,  0.000,  0.000,  3,  1.04138,  -124.9615,  'ROSCOE 5',  500.00,  27
3050,  1,  0.004,  -51.914,  0.000,  0.000,  3,  1.02980,  -134.8813,  'DEL RIO ',  230.00,  28
3051,  1,  0.002,  -20.794,  0.000,  0.000,  3,  1.01946,  -137.5833,  'DEL RIO ',  115.00,  28
3052,  1,  0.000,  0.000,  0.000,  0.000,  3,  0.90969,  -141.3081,  'HUNT 0  ',  115.00,  28
3066,  1,  0.000,  0.000,  0.000,  0.000,  3,  1.01141,  -138.7869,  'BRADY 0 ',  115.00,  28
3073,  1,  0.000,  0.000,  0.000,  0.000,  3,  0.90323,  -153.1478,  'BRACKETT',  115.00,  28
3074,  1,  -4.775,  -21.260,  0.000,  0.000,  3,  0.91694,  -152.9753,  'BRACKETT',  13.800,  28
3075,  1,  0.000,  0.000,  0.000,  0.000,  3,  1.01675,  -141.9397,  'MASON 0 ',  115.00,  28
3076,  1,  0.000,  0.000,  0.000,  0.000,  3,  0.90012,  -151.9429,  'BRACKETT',  115.00,  28
3093,  1,  0.000,  0.000,  0.000,  0.000,  3,  0.90150,  -146.4068,  'ROCKSPRI',  115.00,  28
3101,  1,  0.000,  0.000,  0.000,  0.000,  3,  1.00925,  -127.7836,  'BUCHANAN',  115.00,  28
3104,  1,  0.000,  0.000,  0.000,  0.000,  3,  1.01032,  -125.8970,  'BUCHANAN',  115.00,  28
3105,  1,  -5.418,  0.740,  0.000,  0.000,  3,  1.01004,  -125.4961,  'BUCHANAN',  13.200,  28
3106,  3,  0.000,  0.000,  0.000,  0.000,  3,  1.00000,  -123.0945,  'BUCHANAN',  13.200,  28
3107,  1,  0.000,  0.000,  0.000,  0.000,  3,  0.93061,  -135.3148,  'INGRAM 0',  115.00,  28
3108,  1,  0.000,  0.000,  0.000,  0.000,  3,  1.00837,  -129.1568,  'KEMPNER ',  115.00,  28
3119,  1,  0.000,  0.000,  0.000,  0.000,  3,  0.95830,  -149.4326,  'BRACKETT',  115.00,  28
3120,  2,  0.000,  0.000,  0.000,  0.000,  3,  0.95830,  -149.4326,  'BRACKETT',  13.800,  28
3123,  1,  0.000,  0.000,  0.000,  0.000,  3,  0.87552,  -154.9001,  'UVALDE 0',  115.00,  28
3124,  1,  0.006,  -43.167,  0.000,  0.000,  3,  0.97934,  -132.9301,  'FREDERIC',  115.00,  28
3126,  1,  -0.010,  -34.210,  0.000,  0.000,  3,  0.87128,  -152.1942,  'SABINAL ',  115.00,  28
3132,  1,  0.000,  0.000,  0.000,  0.000,  3,  1.01780,  -141.3856,  'EDEN 0  ',  115.00,  28
3138,  1,  0.000,  0.000,  0.000,  0.000,  3,  1.02539,  -141.3938,  'MENARD 0',  115.00,  28
3142,  1,  71.675,  -27.352,  0.000,  0.000,  3,  1.02993,  -141.5035,  'GOODFELL',  115.00,  27
3143,  1,  0.005,  -18.010,  0.000,  0.000,  3,  1.02924,  -139.5565,  'SANTA AN',  115.00,  28
3144,  1,  0.000,  0.000,  0.000,  0.000,  3,  1.02263,  -140.6029,  'ROWENA 0',  115.00,  28
3146,  1,  0.000,  -7.437,  0.000,  0.000,  3,  1.02992,  -139.7728,  'JUNCTION',  115.00,  28
3147,  1,  -0.002,  -36.633,  0.000,  0.000,  3,  1.02306,  -129.7887,  'LAMPASAS',  115.00,  28
4002,  1,  0.000,  0.000,  0.000,  0.000,  4,  0.93645,  -150.9881,  'LAUGHLIN',  115.00,  20
4004,  1,  0.000,  0.000,  0.000,  0.000,  4,  1.01489,  -145.4268,  'LAREDO 7',  230.00,  20
4005,  1,  -0.006,  -72.017,  0.000,  0.000,  4,  1.01400,  -148.3241,  'LAREDO 7',  115.00,  20
4006,  1,  0.000,  0.000,  0.000,  0.000,  4,  1.02561,  -143.2792,  'BRUNI 2 ',  115.00,  20
4008,  1,  0.000,  0.000,  0.000,  0.000,  4,  0.98984,  -125.9277,  'POTEET 0',  115.00,  20
4011,  1,  42.461,  -4.849,  0.000,  0.000,  4,  1.01254,  -148.1768,  'HEBBRONV',  115.00,  19
4014,  1,  0.000,  0.000,  0.000,  0.000,  4,  1.00911,  -143.2262,  'EAGLE PA',  230.00,  20
4015,  1,  0.001,  -76.851,  0.000,  0.000,  4,  1.01191,  -145.1081,  'EAGLE PA',  115.00,  20
4016,  1,  0.000,  0.000,  0.000,  0.000,  4,  0.99484,  -125.9387,  'CHARLOTT',  115.00,  20
4022,  1,  0.000,  0.000,  0.000,  0.000,  4,  0.98974,  -146.3235,  'ENCINAL ',  115.00,  20
4023,  1,  0.000,  0.000,  0.000,  0.000,  4,  0.99560,  -125.6208,  'MOORE 0 ',  115.00,  20
4024,  1,  0.000,  0.000,  0.000,  0.000,  4,  1.00191,  -124.1551,  'CHRISTIN',  230.00,  20
4025,  1,  0.000,  0.000,  0.000,  0.000,  4,  0.99780,  -125.4707,  'CHRISTIN',  115.00,  20
4026,  2,  0.000,  0.000,  0.000,  0.000,  4,  1.03000,  -121.9166,  'CHRISTIN',  13.800,  20
4029,  1,  25.504,  12.493,  0.000,  0.000,  4,  0.96775,  -113.1383,  'FANNIN 1',  115.00,  21
4030,  3,  -5.502,  4.760,  0.000,  0.000,  4,  1.01000,  -109.1984,  'FANNIN 2',  13.800,  21
4031,  1,  0.000,  0.000,  0.000,  0.000,  4,  1.01258,  -148.4297,  'SAN YGNA',  115.00,  20
4033,  1,  0.000,  0.000,  0.000,  0.000,  4,  1.00454,  -147.6421,  'LAREDO 6',  115.00,  20
4036,  1,  0.000,  0.000,  0.000,  0.000,  4,  0.95370,  -138.3134,  'CRYSTAL ',  115.00,  20
4043,  1,  56.045,  -9.019,  0.000,  0.000,  4,  1.00677,  -153.6378,  'FALCON H',  115.00,  19
4058,  2,  36.168,  11.593,  0.000,  0.000,  4,  1.03000,  -127.7171,  'GREGORY ',  13.800,  21
4059,  2,  42.548,  12.646,  0.000,  0.000,  4,  1.03000,  -128.2458,  'GREGORY ',  13.800,  21
4060,  2,  33.626,  10.257,  0.000,  0.000,  4,  1.03000,  -126.2431,  'GREGORY ',  13.800,  21
4061,  2,  37.132,  12.018,  0.000,  0.000,  4,  1.03000,  -127.1251,  'GREGORY ',  13.800,  21
4062,  2,  39.640,  11.491,  0.000,  0.000,  4,  1.03000,  -126.1567,  'GREGORY ',  13.800,  21
4063,  2,  36.421,  12.325,  0.000,  0.000,  4,  1.03000,  -127.0454,  'GREGORY ',  13.800,  21
4073,  1,  1956.818,  -437.037,  0.000,  0.000,  4,  1.01557,  -157.0408,  'MISSION ',  230.00,  19
4082,  2,  34.997,  5.548,  0.000,  0.000,  4,  1.04000,  -133.1524,  'CORPUS C',  13.800,  21
4083,  2,  37.454,  5.777,  0.000,  0.000,  4,  1.04000,  -133.6023,  'CORPUS C',  13.800,  21
4084,  2,  61.476,  7.777,  0.000,  0.000,  4,  1.04000,  -135.9844,  'CORPUS C',  13.800,  21
4085,  2,  78.950,  9.032,  0.000,  0.000,  4,  1.04000,  -134.7278,  'CORPUS C',  13.800,  21
4101,  1,  0.000,  0.000,  0.000,  0.000,  4,  1.00441,  -147.7549,  'LAREDO 3',  115.00,  20
4105,  2,  154.910,  20.293,  0.000,  0.000,  4,  1.00513,  -138.8250,  'TAFT 2 1',  18.000,  21
4113,  1,  0.000,  0.000,  0.000,  0.000,  4,  1.01889,  -145.1088,  'LAREDO 1',  230.00,  20
4114,  1,  0.000,  0.000,  0.000,  0.000,  4,  1.01074,  -146.8697,  'LAREDO 1',  115.00,  20
4115,  2,  0.000,  0.000,  0.000,  0.000,  4,  1.04000,  -143.9751,  'LAREDO 1',  13.800,  20
4116,  2,  0.000,  0.000,  0.000,  0.000,  4,  1.04000,  -143.9262,  'LAREDO 1',  13.800,  20
4117,  1,  0.000,  0.000,  0.000,  0.000,  4,  0.99483,  -126.0465,  'JOURDANT',  115.00,  20
4118,  1,  75.723,  -4.595,  0.000,  0.000,  4,  0.96781,  -149.4121,  'GEORGE W',  115.00,  21
4125,  1,  50.634,  9.823,  0.000,  0.000,  4,  0.95142,  -125.8198,  'PETTUS 0',  115.00,  21
4129,  1,  0.000,  0.000,  0.000,  0.000,  4,  1.02530,  -153.2498,  'PREMONT ',  115.00,  20
4130,  1,  0.119,  -26.200,  0.000,  0.000,  4,  1.02315,  -154.0237,  'FREER 0 ',  115.00,  20
4131,  1,  0.222,  -108.094,  0.000,  0.000,  4,  0.98348,  -131.8431,  'PEARSALL',  230.00,  20
4132,  1,  0.000,  0.000,  0.000,  0.000,  4,  0.97395,  -133.5663,  'PEARSALL',  115.00,  20
4133,  2,  0.000,  0.000,  0.000,  0.000,  4,  0.98348,  -131.8431,  'PEARSALL',  20.000,  20
4134,  2,  0.000,  0.000,  0.000,  0.000,  4,  0.98348,  -131.8431,  'PEARSALL',  20.000,  20
4135,  2,  0.000,  0.000,  0.000,  0.000,  4,  0.98348,  -131.8431,  'PEARSALL',  20.000,  20
4136,  2,  0.000,  0.000,  0.000,  0.000,  4,  0.98348,  -131.8431,  'PEARSALL',  20.000,  20
4137,  2,  0.000,  0.000,  0.000,  0.000,  4,  0.98348,  -131.8431,  'PEARSALL',  20.000,  20
4138,  2,  0.000,  0.000,  0.000,  0.000,  4,  0.98348,  -131.8431,  'PEARSALL',  20.000,  20
4140,  1,  332.267,  -141.523,  0.000,  0.000,  4,  1.02477,  -144.9480,  'SARITA 1',  230.00,  21
4143,  1,  0.000,  0.000,  0.000,  0.000,  4,  0.96126,  -136.7548,  'DILLEY 0',  115.00,  20
4146,  1,  0.000,  0.000,  0.000,  0.000,  4,  1.01470,  -143.5684,  'LAREDO 4',  230.00,  20
4147,  1,  0.021,  -103.714,  0.000,  0.000,  4,  1.01805,  -145.7184,  'LAREDO 4',  115.00,  20
4148,  1,  0.000,  0.000,  0.000,  0.000,  4,  0.97979,  -152.0870,  'THREE RI',  115.00,  20
4160,  2,  135.892,  41.548,  0.000,  0.000,  4,  1.03000,  -132.0174,  'CORPUS C',  13.800,  21
4161,  2,  62.396,  20.502,  0.000,  0.000,  4,  1.03000,  -128.7128,  'CORPUS C',  13.800,  21
4162,  2,  63.367,  19.320,  0.000,  0.000,  4,  1.03000,  -128.7955,  'CORPUS C',  13.800,  21
4172,  1,  0.000,  0.000,  0.000,  0.000,  4,  0.98661,  -127.5045,  'PLEASANT',  115.00,  20
4174,  1,  0.000,  -89.503,  0.000,  0.000,  4,  1.02608,  -124.8205,  'LYTLE 0 ',  115.00,  20
4175,  1,  -0.167,  -29.370,  0.000,  0.000,  4,  1.02959,  -149.4150,  'LAREDO 2',  115.00,  20
4176,  1,  0.000,  0.000,  0.000,  0.000,  4,  1.03357,  -150.8181,  'BRUNI 1 ',  115.00,  20
4177,  1,  -7.177,  -9.939,  0.000,  0.000,  4,  1.03914,  -150.6163,  'BRUNI 1 ',  13.800,  20
4178,  1,  70.626,  -38.062,  0.000,  0.000,  4,  0.96583,  -128.1806,  'GOLIAD 0',  115.00,  21
4179,  1,  0.000,  0.000,  0.000,  0.000,  4,  1.00621,  -154.0641,  'SAN DIEG',  115.00,  20
4181,  2,  246.277,  39.943,  0.000,  0.000,  4,  1.00049,  -130.4399,  'TAFT 1 0',  230.00,  21
4187,  1,  0.000,  0.000,  0.000,  0.000,  4,  0.96995,  -144.0765,  'COTULLA ',  115.00,  20
4188,  1,  0.000,  0.000,  0.000,  0.000,  4,  0.98171,  -147.6916,  'QUEMADO ',  115.00,  20
4189,  1,  0.000,  0.000,  0.000,  0.000,  4,  0.95429,  -140.3269,  'CARRIZO ',  115.00,  20
4190,  1,  0.000,  0.000,  0.000,  0.000,  4,  1.00567,  -147.5175,  'LAREDO 5',  115.00,  20
4192,  2,  928.868,  110.174,  0.000,  0.000,  4,  1.02000,  -145.9863,  'BROWNSVI',  230.00,  19
4195,  1,  -3.631,  13.247,  0.000,  0.000,  4,  1.01078,  -134.1061,  'OILTON 0',  500.00,  20
4196,  1,  -0.257,  -208.895,  0.000,  0.000,  4,  1.02162,  -137.7940,  'OILTON 1',  230.00,  20
4197,  1,  -0.224,  -42.200,  0.000,  0.000,  4,  1.02962,  -141.4372,  'OILTON 2',  115.00,  20
5005,  1,  0.000,  0.000,  0.000,  0.000,  5,  0.95801,  -137.2074,  'LIPAN 0 ',  161.00,  18
5011,  1,  0.000,  0.000,  0.000,  0.000,  5,  0.87580,  -137.3633,  'THORNTON',  161.00,  13
5021,  1,  1528.459,  -88.414,  0.000,  0.000,  5,  1.02009,  -127.5139,  'ALEDO 1 ',  500.00,  17
5024,  1,  0.000,  0.000,  0.000,  0.000,  5,  0.90958,  -136.3463,  'GATESVIL',  161.00,  13
5025,  1,  0.000,  0.000,  0.000,  0.000,  5,  1.01312,  -129.1059,  'CLEBURNE',  161.00,  18
5029,  1,  0.000,  0.000,  0.000,  0.000,  5,  0.96566,  -128.5301,  'TROY 0  ',  161.00,  13
5037,  2,  240.776,  13.024,  0.000,  0.000,  5,  1.02000,  -124.8267,  'DALLAS 1',  13.200,  16
5038,  2,  233.648,  13.330,  0.000,  0.000,  5,  1.02000,  -124.7606,  'DALLAS 1',  13.200,  16
5039,  2,  545.988,  13.881,  0.000,  0.000,  5,  1.02000,  -125.9537,  'DALLAS 1',  13.200,  16
5040,  2,  180.646,  10.690,  0.000,  0.000,  5,  1.02000,  -124.1011,  'DALLAS 1',  13.200,  16
5041,  2,  255.807,  11.683,  0.000,  0.000,  5,  1.02000,  -124.9518,  'DALLAS 1',  13.200,  16
5042,  2,  217.878,  13.205,  0.000,  0.000,  5,  1.02000,  -124.6078,  'DALLAS 1',  13.200,  16
5045,  1,  0.000,  0.000,  0.000,  0.000,  5,  1.02927,  -124.6224,  'STEPHENV',  500.00,  18
5046,  1,  0.000,  0.000,  0.000,  0.000,  5,  1.01635,  -126.9360,  'STEPHENV',  161.00,  18
5047,  1,  743.769,  -30.724,  0.000,  0.000,  5,  1.01652,  -124.9209,  'MANSFIEL',  500.00,  17
5054,  1,  198.405,  47.383,  0.000,  0.000,  5,  0.84026,  -142.5019,  'GROESBEC',  161.00,  14
5057,  2,  112.445,  -14.851,  0.000,  0.000,  5,  1.01685,  -122.0946,  'GRAHAM 2',  13.800,  12
5058,  2,  80.919,  -9.674,  0.000,  0.000,  5,  1.01404,  -121.0249,  'GRAHAM 3',  13.800,  12
5063,  1,  3414.720,  -286.420,  0.000,  0.000,  5,  1.02559,  -127.1489,  'ARLINGTO',  500.00,  17
5067,  2,  0.000,  0.000,  0.000,  0.000,  5,  1.03000,  -124.5931,  'ARLINGTO',  13.800,  17
5068,  2,  0.000,  0.000,  0.000,  0.000,  5,  1.03000,  -124.4658,  'ARLINGTO',  13.800,  17
5069,  2,  0.000,  0.000,  0.000,  0.000,  5,  1.03000,  -124.2950,  'ARLINGTO',  13.800,  17
5071,  1,  0.000,  0.000,  0.000,  0.000,  5,  0.98227,  -128.0036,  'WACO 3 0',  161.00,  13
5075,  1,  0.000,  0.000,  0.000,  0.000,  5,  0.94419,  -133.0921,  'EVANT 0 ',  161.00,  18
5079,  1,  0.000,  0.000,  0.000,  0.000,  5,  0.98520,  -129.6419,  'WACO 4 0',  161.00,  13
5080,  1,  0.000,  0.000,  0.000,  0.000,  5,  0.94509,  -132.5535,  'LORENA 0',  161.00,  13
5081,  1,  0.000,  0.000,  0.000,  0.000,  5,  0.99841,  -126.7517,  'FORT HOO',  161.00,  13
5088,  1,  0.000,  0.000,  0.000,  0.000,  5,  0.96530,  -133.9694,  'CLIFTON ',  161.00,  18
5089,  1,  -15.086,  -47.569,  0.000,  0.000,  5,  1.01014,  -133.2413,  'CLIFTON ',  13.800,  18
5101,  1,  100.559,  -5.443,  0.000,  0.000,  5,  0.94835,  -138.5331,  'COMANCHE',  161.00,  15
5112,  1,  0.000,  0.000,  0.000,  0.000,  5,  0.95203,  -135.0910,  'HICO 0  ',  161.00,  18
5120,  1,  153.056,  -25.331,  0.000,  0.000,  5,  1.03545,  -124.7129,  'BROWNWOO',  500.00,  15
5123,  1,  0.000,  0.000,  0.000,  0.000,  5,  0.90904,  -132.2027,  'MARLIN 0',  161.00,  13
5124,  1,  0.000,  0.000,  0.000,  0.000,  5,  0.90918,  -130.3338,  'MARLIN 1',  115.00,  13
5127,  1,  0.000,  0.000,  0.000,  0.000,  5,  0.92740,  -137.7283,  'JONESBOR',  161.00,  18
5129,  1,  0.000,  0.000,  0.000,  0.000,  5,  0.97137,  -133.5344,  'GOLDTHWA',  161.00,  18
5131,  1,  0.000,  0.000,  0.000,  0.000,  5,  1.01452,  -122.2758,  'BELTON 0',  500.00,  13
5132,  1,  0.000,  0.000,  0.000,  0.000,  5,  1.00603,  -124.5146,  'BELTON 1',  161.00,  13
5133,  1,  0.000,  0.000,  0.000,  0.000,  5,  0.94399,  -137.8407,  'TOLAR 0 ',  161.00,  18
5137,  1,  0.000,  0.000,  0.000,  0.000,  5,  0.99777,  -126.5121,  'WACO 1 0',  500.00,  13
5138,  1,  0.000,  0.000,  0.000,  0.000,  5,  0.99017,  -128.2876,  'WACO 1 1',  161.00,  13
5140,  1,  0.000,  0.000,  0.000,  0.000,  5,  0.90392,  -137.0799,  'GATESVIL',  161.00,  13
5142,  1,  0.000,  0.000,  0.000,  0.000,  5,  0.94541,  -131.6795,  'MOODY 0 ',  161.00,  13
5144,  1,  0.000,  0.000,  0.000,  0.000,  5,  0.95716,  -131.5420,  'WACO 6 0',  161.00,  13
5151,  1,  0.000,  0.000,  0.000,  0.000,  5,  0.94838,  -135.9064,  'MORGAN 0',  161.00,  18
5154,  1,  0.000,  0.000,  0.000,  0.000,  5,  0.94757,  -135.6960,  'RIO VIST',  161.00,  18
5159,  1,  0.000,  0.000,  0.000,  0.000,  5,  0.90633,  -133.1131,  'ROSEBUD ',  161.00,  13
5162,  1,  298.127,  68.422,  0.000,  0.000,  5,  0.81285,  -146.2312,  'AXTELL 0',  161.00,  14
5163,  1,  0.000,  0.000,  0.000,  0.000,  5,  0.99962,  -125.8899,  'NOLANVIL',  161.00,  13
5166,  2,  152.496,  -8.947,  0.000,  0.000,  5,  1.04000,  -126.5664,  'DENTON 1',  13.800,  17
...
 0 /End of Bus data, Begin Generator data
1048,  '1',  325.200,  55.695,  165.530,  -36.100,  1.00000,  0,  390.240,  0.00000,  0.10170,  0.00000,  0.00000,  1.00000,  1,  100.0,  325.200,  97.560
1049,  '1',  325.200,  78.672,  165.530,  -36.100,  1.00000,  0,  390.240,  0.00000,  0.13490,  0.00000,  0.00000,  1.00000,  1,  100.0,  325.200,  97.560
1053,  '1',  128.740,  -10.457,  91.010,  -19.850,  1.00000,  0,  214.560,  0.00000,  0.16870,  0.00000,  0.00000,  1.00000,  1,  100.0,  178.800,  53.640
1072,  '1',  141.913,  3.828,  97.800,  -21.330,  1.01000,  0,  230.560,  0.00000,  0.30820,  0.00000,  0.00000,  1.00000,  1,  100.0,  192.130,  57.640
1073,  '1',  138.330,  1.198,  97.800,  -21.330,  1.01000,  0,  230.560,  0.00000,  0.19480,  0.00000,  0.00000,  1.00000,  1,  100.0,  192.130,  57.640
1074,  '1',  138.330,  8.194,  97.800,  -21.330,  1.01000,  0,  230.560,  0.00000,  0.20960,  0.00000,  0.00000,  1.00000,  1,  100.0,  192.130,  57.640
1075,  '1',  138.330,  7.755,  97.800,  -21.330,  1.01000,  0,  230.560,  0.00000,  0.12370,  0.00000,  0.00000,  1.00000,  1,  100.0,  192.130,  57.640
1076,  '1',  138.330,  7.849,  97.800,  -21.330,  1.01000,  0,  230.560,  0.00000,  0.10660,  0.00000,  0.00000,  1.00000,  1,  100.0,  192.130,  57.640
1077,  '1',  138.330,  6.930,  97.800,  -21.330,  1.01000,  0,  230.560,  0.00000,  0.15380,  0.00000,  0.00000,  1.00000,  1,  100.0,  192.130,  57.640
1081,  '1',  286.500,  7.707,  145.830,  -31.800,  1.01000,  0,  343.800,  0.00000,  0.14960,  0.00000,  0.00000,  1.00000,  1,  100.0,  286.500,  85.950
2004,  '1',  117.540,  -13.956,  199.430,  -43.490,  1.02000,  0,  470.160,  0.00000,  0.10640,  0.00000,  0.00000,  1.00000,  1,  100.0,  391.800,  117.540
2005,  '1',  117.540,  -12.384,  199.430,  -43.490,  1.02000,  0,  470.160,  0.00000,  0.22750,  0.00000,  0.00000,  1.00000,  1,  100.0,  391.800,  117.540
2006,  '1',  117.540,  -7.006,  199.430,  -43.490,  1.02000,  0,  470.160,  0.00000,  0.20040,  0.00000,  0.00000,  1.00000,  1,  100.0,  391.800,  117.540
2019,  '1',  31.793,  36.146,  46.430,  -31.390,  1.04000,  0,  261.600,  0.00000,  1.00000,  0.00000,  0.00000,  1.00000,  1,  100.0,  218.000,  65.400
2024,  '1',  120.000,  -3.905,  84.830,  -18.500,  1.02000,  0,  200.000,  0.00000,  0.15080,  0.00000,  0.00000,  1.00000,  1,  100.0,  166.670,  50.000
2057,  '1',  313.046,  -220.245,  335.520,  -87.840,  0.99000,  0,  864.000,  0.00000,  0.17700,  0.00000,  0.00000,  1.00000,  1,  100.0,  720.000,  216.000
2071,  '1',  34.104,  -20.360,  31.950,  -21.600,  1.00000,  0,  180.000,  0.00000,  1.00000,  0.00000,  0.00000,  1.00000,  1,  100.0,  150.000,  45.000
2103,  '1',  80.320,  -29.720,  136.280,  -29.720,  1.00000,  0,  321.280,  0.00000,  0.33430,  0.00000,  0.00000,  1.00000,  1,  100.0,  267.730,  80.320
2104,  '1',  80.320,  -29.720,  136.280,  -29.720,  1.00000,  0,  321.280,  0.00000,  0.31470,  0.00000,  0.00000,  1.00000,  1,  100.0,  267.730,  80.320
2105,  '1',  80.320,  -29.720,  136.280,  -29.720,  1.00000,  0,  321.280,  0.00000,  0.14160,  0.00000,  0.00000,  1.00000,  1,  100.0,  267.730,  80.320
2115,  '1',  133.000,  -20.500,  94.020,  -20.500,  1.00000,  0,  221.660,  0.00000,  0.14250,  0.00000,  0.00000,  1.00000,  1,  100.0,  184.720,  55.410
2116,  '1',  133.000,  -20.500,  94.020,  -20.500,  1.00000,  0,  221.660,  0.00000,  0.18690,  0.00000,  0.00000,  1.00000,  1,  100.0,  184.720,  55.410
2117,  '1',  133.000,  -20.500,  94.020,  -20.500,  1.00000,  0,  221.660,  0.00000,  0.32540,  0.00000,  0.00000,  1.00000,  1,  100.0,  184.720,  55.410
2118,  '1',  133.000,  -20.500,  94.020,  -20.500,  1.00000,  0,  221.660,  0.00000,  0.10610,  0.00000,  0.00000,  1.00000,  1,  100.0,  184.720,  55.410
2119,  '1',  133.000,  -20.500,  94.020,  -20.500,  1.00000,  0,  221.660,  0.00000,  0.13600,  0.00000,  0.00000,  1.00000,  1,  100.0,  184.720,  55.410
2120,  '1',  133.000,  -20.500,  94.020,  -20.500,  1.01000,  0,  221.660,  0.00000,  0.20680,  0.00000,  0.00000,  1.00000,  1,  100.0,  184.720,  55.410
2123,  '1',  50.684,  -26.160,  38.700,  -26.160,  1.00000,  0,  218.040,  0.00000,  1.00000,  0.00000,  0.00000,  1.00000,  1,  100.0,  181.700,  54.510
3028,  '1',  45.472,  16.072,  42.600,  -28.800,  1.04000,  0,  240.000,  0.00000,  1.00000,  0.00000,  0.00000,  1.00000,  1,  100.0,  200.000,  60.000
3045,  '1',  259.260,  18.511,  227.520,  -49.620,  1.04000,  0,  536.400,  0.00000,  0.14470,  0.00000,  0.00000,  1.00000,  1,  100.0,  447.000,  134.100
3106,  '1',  36.928,  -10.704,  62.477,  -2.690,  1.00000,  0,  65.880,  0.00000,  0.29220,  0.00000,  0.00000,  1.00000,  1,  100.0,  162.800,  0.000
3120,  '1',  0.000,  0.000,  0.000,  0.000,  1.00000,  0,  47.520,  0.00000,  1.00000,  0.00000,  0.00000,  1.00000,  0,  100.0,  39.600,  11.880
4026,  '1',  123.000,  86.535,  191.060,  -50.020,  1.03000,  0,  492.000,  0.00000,  0.32770,  0.00000,  0.00000,  1.00000,  1,  100.0,  410.000,  123.000
4030,  '1',  174.081,  284.017,  290.040,  -75.930,  1.01000,  0,  746.880,  0.00000,  0.27970,  0.00000,  0.00000,  1.00000,  1,  100.0,  622.400,  186.720
4058,  '1',  103.680,  34.052,  73.300,  -15.980,  1.03000,  0,  172.800,  0.00000,  0.13700,  0.00000,  0.00000,  1.00000,  1,  100.0,  144.000,  43.200
4059,  '1',  103.680,  37.934,  73.300,  -15.980,  1.03000,  0,  172.800,  0.00000,  0.15140,  0.00000,  0.00000,  1.00000,  1,  100.0,  144.000,  43.200
4060,  '1',  103.680,  24.894,  73.300,  -15.980,  1.03000,  0,  172.800,  0.00000,  0.13940,  0.00000,  0.00000,  1.00000,  1,  100.0,  144.000,  43.200
4061,  '1',  124.080,  35.014,  87.720,  -19.130,  1.03000,  0,  206.800,  0.00000,  0.21560,  0.00000,  0.00000,  1.00000,  1,  100.0,  172.330,  51.700
4062,  '1',  124.080,  27.481,  87.720,  -19.130,  1.03000,  0,  206.800,  0.00000,  0.25930,  0.00000,  0.00000,  1.00000,  1,  100.0,  172.330,  51.700
4063,  '1',  124.080,  36.110,  87.720,  -19.130,  1.03000,  0,  206.800,  0.00000,  0.14410,  0.00000,  0.00000,  1.00000,  1,  100.0,  172.330,  51.700
4082,  '1',  209.320,  40.287,  123.890,  -27.020,  1.04000,  0,  292.080,  0.00000,  0.13810,  0.00000,  0.00000,  1.00000,  1,  100.0,  243.400,  73.020
4083,  '1',  209.320,  42.475,  123.890,  -27.020,  1.04000,  0,  292.080,  0.00000,  0.15700,  0.00000,  0.00000,  1.00000,  1,  100.0,  243.400,  73.020
4084,  '1',  209.320,  71.567,  123.890,  -27.020,  1.04000,  0,  292.080,  0.00000,  0.19110,  0.00000,  0.00000,  1.00000,  1,  100.0,  243.400,  73.020
4085,  '1',  352.000,  84.993,  179.170,  -39.070,  1.04000,  0,  422.400,  0.00000,  0.31920,  0.00000,  0.00000,  1.00000,  1,  100.0,  352.000,  105.600
4105,  '1',  40.925,  38.340,  38.340,  -25.920,  1.01000,  0,  216.000,  0.00000,  1.00000,  0.00000,  0.00000,  1.00000,  1,  100.0,  180.000,  54.000
4115,  '1',  39.540,  40.264,  67.090,  -14.630,  1.04000,  0,  158.160,  0.00000,  0.11310,  0.00000,  0.00000,  1.00000,  1,  100.0,  131.800,  39.540
4116,  '1',  39.540,  37.882,  67.090,  -14.630,  1.04000,  0,  158.160,  0.00000,  0.15150,  0.00000,  0.00000,  1.00000,  1,  100.0,  131.800,  39.540
4133,  '1',  0.000,  0.000,  17.100,  -3.730,  1.00000,  0,  40.320,  0.00000,  0.22730,  0.00000,  0.00000,  1.00000,  0,  100.0,  33.600,  10.080
4134,  '1',  0.000,  -3.730,  17.100,  -3.730,  1.00000,  0,  40.320,  0.00000,  0.18000,  0.00000,  0.00000,  1.00000,  0,  100.0,  33.600,  10.080
4135,  '1',  0.000,  -3.730,  17.100,  -3.730,  1.00000,  0,  40.320,  0.00000,  0.10840,  0.00000,  0.00000,  1.00000,  0,  100.0,  33.600,  10.080
4136,  '1',  0.000,  -3.730,  17.100,  -3.730,  1.00000,  0,  40.320,  0.00000,  0.18960,  0.00000,  0.00000,  1.00000,  0,  100.0,  33.600,  10.080
4137,  '1',  0.000,  0.000,  34.200,  -7.460,  1.00000,  0,  80.640,  0.00000,  0.27350,  0.00000,  0.00000,  1.00000,  0,  100.0,  67.200,  20.160
4138,  '1',  0.000,  0.000,  33.590,  -7.330,  1.00000,  0,  79.200,  0.00000,  0.16760,  0.00000,  0.00000,  1.00000,  0,  100.0,  66.000,  19.800
4160,  '1',  170.080,  91.788,  100.660,  -21.950,  1.03000,  0,  237.320,  0.00000,  0.18820,  0.00000,  0.00000,  1.00000,  1,  100.0,  197.770,  59.330
4161,  '1',  170.080,  43.349,  100.660,  -21.950,  1.03000,  0,  237.320,  0.00000,  0.12390,  0.00000,  0.00000,  1.00000,  1,  100.0,  197.770,  59.330
4162,  '1',  170.080,  40.076,  100.660,  -21.950,  1.03000,  0,  237.320,  0.00000,  0.17220,  0.00000,  0.00000,  1.00000,  1,  100.0,  197.770,  59.330
4181,  '1',  45.493,  42.620,  42.620,  -28.810,  1.04000,  0,  240.120,  0.00000,  1.00000,  0.00000,  0.00000,  1.00000,  1,  100.0,  200.100,  60.030
4192,  '1',  1197.930,  144.458,  688.320,  -150.120,  1.02000,  0,  1622.76,  0.00000,  0.14340,  0.00000,  0.00000,  1.00000,  1,  100.0,  1352.31,  405.690
5037,  '1',  308.470,  -5.998,  157.010,  -34.240,  1.02000,  0,  370.160,  0.00000,  0.29910,  0.00000,  0.00000,  1.00000,  1,  100.0,  308.470,  92.540
5038,  '1',  308.470,  -4.969,  157.010,  -34.240,  1.02000,  0,  370.160,  0.00000,  0.12330,  0.00000,  0.00000,  1.00000,  1,  100.0,  308.470,  92.540
5039,  '1',  308.470,  -19.019,  157.010,  -34.240,  1.02000,  0,  370.160,  0.00000,  0.21470,  0.00000,  0.00000,  1.00000,  1,  100.0,  308.470,  92.540
5040,  '1',  308.470,  -4.043,  157.010,  -34.240,  1.02000,  0,  370.160,  0.00000,  0.19240,  0.00000,  0.00000,  1.00000,  1,  100.0,  308.470,  92.540
5041,  '1',  308.470,  -8.701,  157.010,  -34.240,  1.02000,  0,  370.160,  0.00000,  0.11590,  0.00000,  0.00000,  1.00000,  1,  100.0,  308.470,  92.540
5042,  '1',  308.470,  -3.841,  157.010,  -34.240,  1.02000,  0,  370.160,  0.00000,  0.19130,  0.00000,  0.00000,  1.00000,  1,  100.0,  308.470,  92.540
5057,  '1',  317.350,  -35.230,  161.530,  -35.230,  1.00000,  0,  380.820,  0.00000,  0.19130,  0.00000,  0.00000,  1.00000,  1,  100.0,  317.350,  95.200
5058,  '1',  317.350,  -35.230,  161.530,  -35.230,  1.00000,  0,  380.820,  0.00000,  0.29820,  0.00000,  0.00000,  1.00000,  1,  100.0,  317.350,  95.200
5067,  '1',  438.270,  47.547,  223.080,  -48.650,  1.03000,  0,  525.920,  0.00000,  0.32610,  0.00000,  0.00000,  1.00000,  1,  100.0,  438.270,  131.480
5068,  '1',  438.270,  43.897,  223.080,  -48.650,  1.03000,  0,  525.920,  0.00000,  0.11690,  0.00000,  0.00000,  1.00000,  1,  100.0,  438.270,  131.480
5069,  '1',  438.270,  41.074,  223.080,  -48.650,  1.03000,  0,  525.920,  0.00000,  0.10560,  0.00000,  0.00000,  1.00000,  1,  100.0,  438.270,  131.480
5166,  '1',  91.080,  47.262,  64.390,  -14.040,  1.04000,  0,  151.800,  0.00000,  0.13910,  0.00000,  0.00000,  1.00000,  1,  100.0,  126.500,  37.950
5198,  '1',  34.104,  -21.600,  31.950,  -21.600,  1.00000,  0,  180.000,  0.00000,  1.00000,  0.00000,  0.00000,  1.00000,  1,  100.0,  150.000,  45.000
5206,  '1',  248.670,  -27.600,  126.570,  -27.600,  1.01000,  0,  298.400,  0.00000,  0.11980,  0.00000,  0.00000,  1.00000,  1,  100.0,  248.670,  74.600
5207,  '1',  248.670,  -27.600,  126.570,  -27.600,  1.01000,  0,  298.400,  0.00000,  0.18090,  0.00000,  0.00000,  1.00000,  1,  100.0,  248.670,  74.600
5208,  '1',  248.670,  -27.600,  126.570,  -27.600,  1.01000,  0,  298.400,  0.00000,  0.10560,  0.00000,  0.00000,  1.00000,  1,  100.0,  248.670,  74.600
5238,  '1',  51.156,  -32.400,  47.930,  -32.400,  1.00000,  0,  270.000,  0.00000,  1.00000,  0.00000,  0.00000,  1.00000,  1,  100.0,  225.000,  67.500
5243,  '1',  34.104,  -21.600,  31.950,  -21.600,  1.00000,  0,  180.000,  0.00000,  1.00000,  0.00000,  0.00000,  1.00000,  1,  100.0,  150.000,  45.000
5262,  '1',  1215.000,  -54.415,  447.120,  -99.630,  1.01000,  0,  1458.00,  0.00000,  0.26310,  0.00000,  0.00000,  1.00000,  1,  100.0,  1215.00,  364.500
5263,  '1',  1215.000,  -96.858,  447.120,  -99.630,  1.01000,  0,  1458.00,  0.00000,  0.16260,  0.00000,  0.00000,  1.00000,  1,  100.0,  1215.00,  364.500
5281,  '1',  192.770,  -29.720,  136.280,  -29.720,  1.00000,  0,  321.280,  0.00000,  0.10660,  0.00000,  0.00000,  1.00000,  1,  100.0,  267.730,  80.320
5282,  '1',  192.770,  -29.720,  136.280,  -29.720,  1.00000,  0,  321.280,  0.00000,  0.23940,  0.00000,  0.00000,  1.00000,  1,  100.0,  267.730,  80.320
5283,  '1',  192.760,  -29.720,  136.280,  -29.720,  1.00000,  0,  321.280,  0.00000,  0.10650,  0.00000,  0.00000,  1.00000,  1,  100.0,  267.730,  80.320
5298,  '1',  66.700,  58.530,  58.530,  -12.760,  1.04000,  0,  138.000,  0.00000,  0.13260,  0.00000,  0.00000,  1.00000,  1,  100.0,  115.000,  34.500
5299,  '1',  66.700,  57.935,  58.530,  -12.760,  1.04000,  0,  138.000,  0.00000,  0.32280,  0.00000,  0.00000,  1.00000,  1,  100.0,  115.000,  34.500
5300,  '1',  66.700,  58.530,  58.530,  -12.760,  1.04000,  0,  138.000,  0.00000,  0.21910,  0.00000,  0.00000,  1.00000,  1,  100.0,  115.000,  34.500
5302,  '1',  398.830,  80.005,  236.050,  -51.480,  1.04000,  0,  556.500,  0.00000,  0.13300,  0.00000,  0.00000,  1.00000,  1,  100.0,  463.750,  139.130
5303,  '1',  398.830,  103.442,  236.050,  -51.480,  1.04000,  0,  556.500,  0.00000,  0.17920,  0.00000,  0.00000,  1.00000,  1,  100.0,  463.750,  139.130
5319,  '1',  189.220,  -21.784,  133.770,  -29.170,  1.01000,  0,  315.360,  0.00000,  0.25070,  0.00000,  0.00000,  1.00000,  1,  100.0,  262.800,  78.840
5320,  '1',  189.220,  -21.030,  133.770,  -29.170,  1.01000,  0,  315.360,  0.00000,  0.28140,  0.00000,  0.00000,  1.00000,  1,  100.0,  262.800,  78.840
5321,  '1',  189.220,  -23.272,  133.770,  -29.170,  1.01000,  0,  315.360,  0.00000,  0.12810,  0.00000,  0.00000,  1.00000,  1,  100.0,  262.800,  78.840
5324,  '1',  284.070,  71.027,  144.590,  -31.530,  1.04000,  0,  340.880,  0.00000,  0.21670,  0.00000,  0.00000,  1.00000,  1,  100.0,  284.070,  85.220
5325,  '1',  284.070,  73.080,  144.590,  -31.530,  1.04000,  0,  340.880,  0.00000,  0.15030,  0.00000,  0.00000,  1.00000,  1,  100.0,  284.070,  85.220
5326,  '1',  284.070,  144.590,  144.590,  -31.530,  1.04000,  0,  340.880,  0.00000,  0.18810,  0.00000,  0.00000,  1.00000,  1,  100.0,  284.070,  85.220
5360,  '1',  463.103,  -26.322,  469.730,  -122.980,  1.01000,  0,  1209.60,  0.00000,  0.25510,  0.00000,  0.00000,  1.00000,  1,  100.0,  1008.00,  302.400
5364,  '1',  213.330,  -23.680,  108.590,  -23.680,  1.00000,  0,  256.000,  0.00000,  0.13030,  0.00000,  0.00000,  1.00000,  1,  100.0,  213.330,  64.000
5365,  '1',  213.330,  -23.680,  108.590,  -23.680,  1.00000,  0,  256.000,  0.00000,  0.11650,  0.00000,  0.00000,  1.00000,  1,  100.0,  213.330,  64.000
5366,  '1',  213.330,  -23.680,  108.590,  -23.680,  1.00000,  0,  256.000,  0.00000,  0.15490,  0.00000,  0.00000,  1.00000,  1,  100.0,  213.330,  64.000
5367,  '1',  213.330,  -23.680,  108.590,  -23.680,  1.00000,  0,  256.000,  0.00000,  0.10020,  0.00000,  0.00000,  1.00000,  1,  100.0,  213.330,  64.000
5368,  '1',  213.330,  -23.680,  108.590,  -23.680,  1.00000,  0,  256.000,  0.00000,  0.36180,  0.00000,  0.00000,  1.00000,  1,  100.0,  213.330,  64.000
5369,  '1',  213.330,  -23.680,  108.590,  -23.680,  1.00000,  0,  256.000,  0.00000,  0.24440,  0.00000,  0.00000,  1.00000,  1,  100.0,  213.330,  64.000
5382,  '1',  209.000,  106.380,  106.380,  -23.200,  1.04000,  0,  250.800,  0.00000,  0.24770,  0.00000,  0.00000,  1.00000,  1,  100.0,  209.000,  62.700
5383,  '1',  209.000,  106.380,  106.380,  -23.200,  1.04000,  0,  250.800,  0.00000,  0.39820,  0.00000,  0.00000,  1.00000,  1,  100.0,  209.000,  62.700
5399,  '1',  37.651,  28.178,  35.270,  -23.850,  1.04000,  0,  198.720,  0.00000,  1.00000,  0.00000,  0.00000,  1.00000,  1,  100.0,  165.600,  49.680
5403,  '1',  0.000,  45.500,  45.500,  -9.920,  1.03000,  0,  107.280,  0.00000,  0.19850,  0.00000,  0.00000,  1.00000,  0,  100.0,  89.400,  26.820
5404,  '1',  0.000,  45.500,  45.500,  -9.920,  1.03000,  0,  107.280,  0.00000,  0.13470,  0.00000,  0.00000,  1.00000,  0,  100.0,  89.400,  26.820
5405,  '1',  0.000,  45.500,  45.500,  -9.920,  1.03000,  0,  107.280,  0.00000,  0.14170,  0.00000,  0.00000,  1.00000,  0,  100.0,  89.400,  26.820
5406,  '1',  0.000,  45.500,  45.500,  -9.920,  1.03000,  0,  107.280,  0.00000,  0.12270,  0.00000,  0.00000,  1.00000,  0,  100.0,  89.400,  26.820
5415,  '1',  87.840,  -13.540,  62.100,  -13.540,  1.00000,  0,  146.400,  0.00000,  0.14030,  0.00000,  0.00000,  1.00000,  1,  100.0,  122.000,  36.600
5416,  '1',  87.840,  -13.540,  62.100,  -13.540,  1.00000,  0,  146.400,  0.00000,  0.26480,  0.00000,  0.00000,  1.00000,  1,  100.0,  122.000,  36.600
5417,  '1',  87.840,  -13.540,  62.100,  -13.540,  1.00000,  0,  146.400,  0.00000,  0.16960,  0.00000,  0.00000,  1.00000,  1,  100.0,  122.000,  36.600
5418,  '1',  85.540,  -13.190,  60.470,  -13.190,  1.00000,  0,  142.560,  0.00000,  0.34000,  0.00000,  0.00000,  1.00000,  1,  100.0,  118.800,  35.640
5419,  '1',  85.540,  -13.190,  60.470,  -13.190,  1.00000,  0,  142.560,  0.00000,  0.16420,  0.00000,  0.00000,  1.00000,  1,  100.0,  118.800,  35.640
5444,  '1',  1412.380,  -223.840,  1026.440,  -223.840,  1.01000,  0,  2419.92,  0.00000,  0.34260,  0.00000,  0.00000,  1.00000,  1,  100.0,  2016.60,  604.980
6006,  '1',  183.180,  39.040,  108.420,  -23.640,  1.04000,  0,  255.600,  0.00000,  0.18770,  0.00000,  0.00000,  1.00000,  1,  100.0,  213.000,  63.900
6007,  '1',  426.000,  63.343,  216.830,  -47.290,  1.04000,  0,  511.200,  0.00000,  0.13420,  0.00000,  0.00000,  1.00000,  1,  100.0,  426.000,  127.800
6008,  '1',  170.560,  34.623,  100.950,  -22.010,  1.04000,  0,  238.000,  0.00000,  0.20160,  0.00000,  0.00000,  1.00000,  1,  100.0,  198.330,  59.500
6009,  '1',  170.560,  21.800,  100.950,  -22.010,  1.04000,  0,  238.000,  0.00000,  0.18430,  0.00000,  0.00000,  1.00000,  1,  100.0,  198.330,  59.500
6010,  '1',  170.560,  28.798,  100.950,  -22.010,  1.04000,  0,  238.000,  0.00000,  0.15620,  0.00000,  0.00000,  1.00000,  1,  100.0,  198.330,  59.500
6042,  '1',  38.988,  20.810,  122.908,  -5.290,  1.04000,  0,  129.600,  0.00000,  0.18770,  0.00000,  0.00000,  1.00000,  1,  100.0,  320.200,  0.000
6048,  '1',  0.000,  0.000,  1.730,  -0.380,  1.04000,  0,  4.080,  0.00000,  0.11720,  0.00000,  0.00000,  1.00000,  0,  100.0,  3.400,  1.020
6049,  '1',  0.000,  4.890,  4.890,  -1.070,  1.04000,  0,  11.520,  0.00000,  0.18260,  0.00000,  0.00000,  1.00000,  0,  100.0,  9.600,  2.880
6050,  '1',  0.000,  0.000,  2.240,  -0.490,  1.04000,  0,  5.280,  0.00000,  0.36280,  0.00000,  0.00000,  1.00000,  0,  100.0,  4.400,  1.320
6052,  '1',  0.000,  29.220,  29.220,  -6.370,  1.04000,  0,  68.880,  0.00000,  0.12090,  0.00000,  0.00000,  1.00000,  0,  100.0,  57.400,  17.220
6069,  '1',  130.590,  23.670,  92.320,  -20.130,  1.03000,  0,  217.640,  0.00000,  0.22480,  0.00000,  0.00000,  1.00000,  1,  100.0,  181.370,  54.410
6070,  '1',  130.590,  10.804,  92.320,  -20.130,  1.03000,  0,  217.640,  0.00000,  0.24660,  0.00000,  0.00000,  1.00000,  1,  100.0,  181.370,  54.410
6071,  '1',  130.590,  30.734,  92.320,  -20.130,  1.03000,  0,  217.640,  0.00000,  0.15280,  0.00000,  0.00000,  1.00000,  1,  100.0,  181.370,  54.410
6072,  '1',  130.590,  13.184,  92.320,  -20.130,  1.03000,  0,  217.640,  0.00000,  0.19250,  0.00000,  0.00000,  1.00000,  1,  100.0,  181.370,  54.410
6073,  '1',  130.590,  18.120,  92.320,  -20.130,  1.03000,  0,  217.640,  0.00000,  0.14260,  0.00000,  0.00000,  1.00000,  1,  100.0,  181.370,  54.410
6074,  '1',  130.590,  17.438,  92.320,  -20.130,  1.03000,  0,  217.640,  0.00000,  0.11150,  0.00000,  0.00000,  1.00000,  1,  100.0,  181.370,  54.410
6078,  '1',  169.000,  8.277,  262.510,  -68.730,  1.00000,  0,  676.000,  0.00000,  0.28900,  0.00000,  0.00000,  1.00000,  1,  100.0,  563.330,  169.000
6079,  '1',  169.000,  17.161,  262.510,  -68.730,  1.00000,  0,  676.000,  0.00000,  0.25330,  0.00000,  0.00000,  1.00000,  1,  100.0,  563.330,  169.000
6080,  '1',  169.000,  13.288,  262.510,  -68.730,  1.00000,  0,  676.000,  0.00000,  0.32510,  0.00000,  0.00000,  1.00000,  1,  100.0,  563.330,  169.000
6085,  '1',  0.000,  0.000,  0.000,  0.000,  1.04000,  0,  1.680,  0.00000,  1.00000,  0.00000,  0.00000,  1.00000,  0,  100.0,  1.400,  0.420
6086,  '1',  0.000,  0.000,  0.000,  0.000,  1.04000,  0,  36.000,  0.00000,  1.00000,  0.00000,  0.00000,  1.00000,  0,  100.0,  30.000,  9.000
6087,  '1',  0.000,  0.000,  0.000,  0.000,  1.04000,  0,  6.600,  0.00000,  1.00000,  0.00000,  0.00000,  1.00000,  0,  100.0,  5.500,  1.650
6088,  '1',  0.000,  0.000,  0.000,  0.000,  1.04000,  0,  12.720,  0.00000,  1.00000,  0.00000,  0.00000,  1.00000,  0,  100.0,  10.600,  3.180
6089,  '1',  0.000,  0.000,  0.000,  0.000,  1.04000,  0,  16.680,  0.00000,  1.00000,  0.00000,  0.00000,  1.00000,  0,  100.0,  13.900,  4.170
6090,  '1',  0.000,  0.000,  0.000,  0.000,  1.04000,  0,  48.840,  0.00000,  1.00000,  0.00000,  0.00000,  1.00000,  0,  100.0,  40.700,  12.210
6104,  '1',  0.000,  30.790,  30.790,  -6.720,  1.04000,  0,  72.600,  0.00000,  0.21100,  0.00000,  0.00000,  1.00000,  0,  100.0,  60.500,  18.150
6105,  '1',  0.000,  30.790,  30.790,  -6.720,  1.04000,  0,  72.600,  0.00000,  0.31280,  0.00000,  0.00000,  1.00000,  0,  100.0,  60.500,  18.150
6106,  '1',  70.180,  61.590,  61.590,  -13.430,  1.04000,  0,  145.200,  0.00000,  0.12010,  0.00000,  0.00000,  1.00000,  1,  100.0,  121.000,  36.300
6110,  '1',  177.180,  85.625,  275.220,  -72.050,  1.04000,  0,  708.720,  0.00000,  0.16800,  0.00000,  0.00000,  1.00000,  1,  100.0,  590.600,  177.180
6111,  '1',  198.450,  86.681,  308.260,  -80.700,  1.04000,  0,  793.800,  0.00000,  0.21900,  0.00000,  0.00000,  1.00000,  1,  100.0,  661.500,  198.450
6144,  '1',  0.000,  -0.930,  4.280,  -0.930,  1.03000,  0,  10.080,  0.00000,  0.21910,  0.00000,  0.00000,  1.00000,  0,  100.0,  8.400,  2.520
6145,  '1',  446.000,  34.042,  227.010,  -49.510,  1.03000,  0,  535.200,  0.00000,  0.14770,  0.00000,  0.00000,  1.00000,  1,  100.0,  446.000,  133.800
6146,  '1',  446.000,  34.859,  227.010,  -49.510,  1.03000,  0,  535.200,  0.00000,  0.11950,  0.00000,  0.00000,  1.00000,  1,  100.0,  446.000,  133.800
6147,  '1',  254.215,  29.844,  474.390,  -103.450,  1.03000,  0,  1118.40,  0.00000,  0.10440,  0.00000,  0.00000,  1.00000,  1,  100.0,  932.000,  279.600
6148,  '1',  418.800,  48.482,  367.500,  -80.140,  1.03000,  0,  866.400,  0.00000,  0.23830,  0.00000,  0.00000,  1.00000,  1,  100.0,  722.000,  216.600
6149,  '1',  418.760,  90.773,  367.500,  -80.140,  1.03000,  0,  866.400,  0.00000,  0.12770,  0.00000,  0.00000,  1.00000,  1,  100.0,  722.000,  216.600
6164,  '1',  202.140,  44.543,  119.640,  -26.090,  1.03000,  0,  282.060,  0.00000,  0.30070,  0.00000,  0.00000,  1.00000,  1,  100.0,  235.050,  70.520
6165,  '1',  202.140,  39.339,  119.640,  -26.090,  1.03000,  0,  282.060,  0.00000,  0.18390,  0.00000,  0.00000,  1.00000,  1,  100.0,  235.050,  70.520
6166,  '1',  202.140,  92.510,  119.640,  -26.090,  1.03000,  0,  282.060,  0.00000,  0.25100,  0.00000,  0.00000,  1.00000,  1,  100.0,  235.050,  70.520
6167,  '1',  202.140,  50.283,  119.640,  -26.090,  1.03000,  0,  282.060,  0.00000,  0.13970,  0.00000,  0.00000,  1.00000,  1,  100.0,  235.050,  70.520
6214,  '1',  67.249,  12.595,  212.059,  -9.130,  1.04000,  0,  223.600,  0.00000,  0.21900,  0.00000,  0.00000,  1.00000,  1,  100.0,  552.300,  0.000
6215,  '1',  67.249,  50.042,  212.059,  -9.130,  1.04000,  0,  223.600,  0.00000,  0.20110,  0.00000,  0.00000,  1.00000,  1,  100.0,  552.300,  0.000
6216,  '1',  67.249,  22.065,  212.059,  -9.130,  1.04000,  0,  223.600,  0.00000,  0.37760,  0.00000,  0.00000,  1.00000,  1,  100.0,  552.300,  0.000
6242,  '1',  0.000,  15.725,  31.050,  -6.770,  1.04000,  0,  73.200,  0.00000,  0.14010,  0.00000,  0.00000,  1.00000,  0,  100.0,  61.000,  18.300
6243,  '1',  157.380,  73.929,  93.150,  -20.310,  1.04000,  0,  219.600,  0.00000,  0.28800,  0.00000,  0.00000,  1.00000,  1,  100.0,  183.000,  54.900
6244,  '1',  298.000,  89.413,  151.680,  -33.080,  1.04000,  0,  357.600,  0.00000,  0.12500,  0.00000,  0.00000,  1.00000,  1,  100.0,  298.000,  89.400
6245,  '1',  298.000,  104.181,  151.680,  -33.080,  1.04000,  0,  357.600,  0.00000,  0.24960,  0.00000,  0.00000,  1.00000,  1,  100.0,  298.000,  89.400
6246,  '1',  298.000,  151.680,  151.680,  -33.080,  1.04000,  0,  357.600,  0.00000,  0.16990,  0.00000,  0.00000,  1.00000,  1,  100.0,  298.000,  89.400
6247,  '1',  157.660,  93.320,  93.320,  -20.350,  1.04000,  0,  220.000,  0.00000,  0.11730,  0.00000,  0.00000,  1.00000,  1,  100.0,  183.330,  55.000
6248,  '1',  157.660,  81.848,  93.320,  -20.350,  1.04000,  0,  220.000,  0.00000,  0.27550,  0.00000,  0.00000,  1.00000,  1,  100.0,  183.330,  55.000
6249,  '1',  157.660,  56.333,  93.320,  -20.350,  1.04000,  0,  220.000,  0.00000,  0.17480,  0.00000,  0.00000,  1.00000,  1,  100.0,  183.330,  55.000
6257,  '1',  166.840,  -21.530,  98.750,  -21.530,  1.02000,  0,  232.800,  0.00000,  0.15520,  0.00000,  0.00000,  1.00000,  1,  100.0,  194.000,  58.200
6258,  '1',  166.840,  -21.530,  98.750,  -21.530,  1.02000,  0,  232.800,  0.00000,  0.26310,  0.00000,  0.00000,  1.00000,  1,  100.0,  194.000,  58.200
6259,  '1',  0.000,  0.000,  26.160,  -5.710,  1.02000,  0,  61.680,  0.00000,  0.14750,  0.00000,  0.00000,  1.00000,  0,  100.0,  51.400,  15.420
6260,  '1',  257.000,  -28.530,  130.810,  -28.530,  1.02000,  0,  308.400,  0.00000,  0.11970,  0.00000,  0.00000,  1.00000,  1,  100.0,  257.000,  77.100
6295,  '1',  177.360,  -22.890,  104.970,  -22.890,  1.02000,  0,  247.480,  0.00000,  0.21970,  0.00000,  0.00000,  1.00000,  1,  100.0,  206.230,  61.870
6296,  '1',  177.360,  -22.890,  104.970,  -22.890,  1.02000,  0,  247.480,  0.00000,  0.25670,  0.00000,  0.00000,  1.00000,  1,  100.0,  206.230,  61.870
6297,  '1',  177.360,  -22.890,  104.970,  -22.890,  1.02000,  0,  247.480,  0.00000,  0.14170,  0.00000,  0.00000,  1.00000,  1,  100.0,  206.230,  61.900
6301,  '1',  0.000,  0.000,  1.630,  -0.360,  1.00000,  0,  3.840,  0.00000,  0.26290,  0.00000,  0.00000,  1.00000,  0,  100.0,  3.200,  0.960
6302,  '1',  247.250,  -27.440,  125.850,  -27.440,  1.00000,  0,  296.700,  0.00000,  0.25960,  0.00000,  0.00000,  1.00000,  1,  100.0,  247.250,  74.180
6303,  '1',  247.250,  -27.440,  125.850,  -27.440,  1.00000,  0,  296.700,  0.00000,  0.27270,  0.00000,  0.00000,  1.00000,  1,  100.0,  247.250,  74.180
6304,  '1',  247.250,  -27.440,  125.850,  -27.440,  1.00000,  0,  296.700,  0.00000,  0.11710,  0.00000,  0.00000,  1.00000,  1,  100.0,  247.250,  74.180
6305,  '1',  247.250,  -27.440,  125.850,  -27.440,  1.00000,  0,  296.700,  0.00000,  0.12770,  0.00000,  0.00000,  1.00000,  1,  100.0,  247.250,  74.180
6349,  '1',  726.000,  369.540,  369.540,  -80.580,  1.04000,  0,  871.200,  0.00000,  0.16290,  0.00000,  0.00000,  1.00000,  1,  100.0,  726.000,  217.800
7005,  '1',  140.180,  33.395,  82.970,  -18.090,  1.04000,  0,  195.600,  0.00000,  0.13000,  0.00000,  0.00000,  1.00000,  1,  100.0,  163.000,  48.900
7006,  '1',  140.180,  58.922,  82.970,  -18.090,  1.04000,  0,  195.600,  0.00000,  0.19150,  0.00000,  0.00000,  1.00000,  1,  100.0,  163.000,  48.900
7007,  '1',  140.180,  38.745,  82.970,  -18.090,  1.04000,  0,  195.600,  0.00000,  0.34300,  0.00000,  0.00000,  1.00000,  1,  100.0,  163.000,  48.900
7008,  '1',  140.180,  36.352,  82.970,  -18.090,  1.04000,  0,  195.600,  0.00000,  0.21570,  0.00000,  0.00000,  1.00000,  1,  100.0,  163.000,  48.900
7009,  '1',  140.180,  32.873,  82.970,  -18.090,  1.04000,  0,  195.600,  0.00000,  0.13060,  0.00000,  0.00000,  1.00000,  1,  100.0,  163.000,  48.900
7045,  '1',  135.680,  95.920,  95.920,  -20.920,  1.03000,  0,  226.140,  0.00000,  0.12400,  0.00000,  0.00000,  1.00000,  1,  100.0,  188.450,  56.530
7046,  '1',  135.680,  95.920,  95.920,  -20.920,  1.03000,  0,  226.140,  0.00000,  0.10650,  0.00000,  0.00000,  1.00000,  1,  100.0,  188.450,  56.530
7061,  '1',  66.640,  58.480,  58.480,  -12.750,  1.00000,  0,  137.880,  0.00000,  0.12410,  0.00000,  0.00000,  1.00000,  1,  100.0,  114.900,  34.470
7062,  '1',  66.640,  58.480,  58.480,  -12.750,  1.00000,  0,  137.880,  0.00000,  0.19500,  0.00000,  0.00000,  1.00000,  1,  100.0,  114.900,  34.470
7063,  '1',  66.640,  58.480,  58.480,  -12.750,  1.00000,  0,  137.880,  0.00000,  0.15790,  0.00000,  0.00000,  1.00000,  1,  100.0,  114.900,  34.470
7064,  '1',  66.640,  58.480,  58.480,  -12.750,  1.00000,  0,  137.880,  0.00000,  0.22800,  0.00000,  0.00000,  1.00000,  1,  100.0,  114.900,  34.470
7065,  '1',  66.640,  58.480,  58.480,  -12.750,  1.00000,  0,  137.880,  0.00000,  0.22800,  0.00000,  0.00000,  1.00000,  1,  100.0,  114.900,  34.470
7066,  '1',  66.640,  58.480,  58.480,  -12.750,  1.00000,  0,  137.880,  0.00000,  0.34800,  0.00000,  0.00000,  1.00000,  1,  100.0,  114.900,  34.470
7079,  '1',  228.650,  29.176,  116.380,  -25.380,  1.04000,  0,  274.380,  0.00000,  0.13630,  0.00000,  0.00000,  1.00000,  1,  100.0,  228.650,  68.590
7080,  '1',  228.650,  23.413,  116.380,  -25.380,  1.04000,  0,  274.380,  0.00000,  0.17160,  0.00000,  0.00000,  1.00000,  1,  100.0,  228.650,  68.590
7081,  '1',  228.650,  24.038,  116.380,  -25.380,  1.04000,  0,  274.380,  0.00000,  0.24350,  0.00000,  0.00000,  1.00000,  1,  100.0,  228.650,  68.590
7082,  '1',  228.650,  28.108,  116.380,  -25.380,  1.04000,  0,  274.380,  0.00000,  0.26430,  0.00000,  0.00000,  1.00000,  1,  100.0,  228.650,  68.590
7098,  '1',  2807.085,  2922.315,  498.380,  -111.050,  1.00000,  0,  3600.00,  0.00000,  0.28190,  0.00000,  0.00000,  1.00000,  1,  100.0,  1354.30,  406.290
7099,  '1',  1354.300,  498.380,  498.380,  -111.050,  1.00000,  0,  1625.16,  0.00000,  0.27430,  0.00000,  0.00000,  1.00000,  1,  100.0,  1354.30,  406.290
7107,  '1',  129.000,  72.288,  76.350,  -16.650,  1.04000,  0,  180.000,  0.00000,  0.29250,  0.00000,  0.00000,  1.00000,  1,  100.0,  150.000,  45.000
7110,  '1',  196.000,  40.797,  99.760,  -21.760,  1.04000,  0,  235.200,  0.00000,  0.13730,  0.00000,  0.00000,  1.00000,  1,  100.0,  196.000,  58.800
7111,  '1',  196.000,  39.773,  99.760,  -21.760,  1.04000,  0,  235.200,  0.00000,  0.19180,  0.00000,  0.00000,  1.00000,  1,  100.0,  196.000,  58.800
7112,  '1',  196.000,  62.766,  99.760,  -21.760,  1.04000,  0,  235.200,  0.00000,  0.17280,  0.00000,  0.00000,  1.00000,  1,  100.0,  196.000,  58.800
7113,  '1',  196.000,  34.158,  99.760,  -21.760,  1.04000,  0,  235.200,  0.00000,  0.16060,  0.00000,  0.00000,  1.00000,  1,  100.0,  196.000,  58.800
7114,  '1',  196.000,  66.524,  99.760,  -21.760,  1.04000,  0,  235.200,  0.00000,  0.20370,  0.00000,  0.00000,  1.00000,  1,  100.0,  196.000,  58.800
...
 0 /End of Generator data, Begin Branch data
1012,  1033,  '99',  0.20209,  0.98034,  0.00000,  0.00,  0.00,  0.00,  0.00000,  0.000,  0.00000,  0.00000,  0.00000,  0.00000,  1
1012,  1046,  '99',  0.11800,  0.48057,  0.00000,  0.00,  0.00,  0.00,  0.00000,  0.000,  0.00000,  0.00000,  0.00000,  0.00000,  1
1012,  -3051,  '1',  0.05710,  0.24977,  0.03804,  149.00,  0.00,  0.00,  0.00000,  0.000,  0.00000,  0.00000,  0.00000,  0.00000,  1
1033,  1046,  '99',  0.13245,  0.68312,  0.00000,  0.00,  0.00,  0.00,  0.00000,  0.000,  0.00000,  0.00000,  0.00000,  0.00000,  1
1033,  1048,  '99',  0.29869,  1.75153,  0.00000,  0.00,  0.00,  0.00,  0.00000,  0.000,  0.00000,  0.00000,  0.00000,  0.00000,  1
1033,  1049,  '99',  0.44831,  3.14873,  0.00000,  0.00,  0.00,  0.00,  0.00000,  0.000,  0.00000,  0.00000,  0.00000,  0.00000,  1
1033,  1053,  '99',  0.34147,  2.35298,  0.00000,  0.00,  0.00,  0.00,  0.00000,  0.000,  0.00000,  0.00000,  0.00000,  0.00000,  1
1033,  1081,  '99',  0.00299,  0.03089,  0.00000,  0.00,  0.00,  0.00,  0.00000,  0.000,  0.00000,  0.00000,  0.00000,  0.00000,  1
1033,  3048,  '99',  0.26030,  3.50730,  0.00000,  0.00,  0.00,  0.00,  0.00000,  0.000,  0.00000,  0.00000,  0.00000,  0.00000,  1
1033,  3050,  '1',  0.01390,  0.13600,  0.26200,  647.00,  0.00,  0.00,  0.00000,  0.000,  0.00000,  0.00000,  0.00000,  0.00000,  1
1046,  3009,  '1',  0.05654,  0.23454,  0.03980,  149.00,  0.00,  0.00,  0.00000,  0.000,  0.00000,  0.00000,  0.00000,  0.00000,  1
1048,  1049,  '99',  0.00227,  0.33502,  0.00000,  0.00,  0.00,  0.00,  0.00000,  0.000,  0.00000,  0.00000,  0.00000,  0.00000,  1
1048,  1053,  '99',  0.00237,  0.25044,  0.00000,  0.00,  0.00,  0.00,  0.00000,  0.000,  0.00000,  0.00000,  0.00000,  0.00000,  1
1048,  1072,  '99',  0.81224,  4.35290,  0.00000,  0.00,  0.00,  0.00,  0.00000,  0.000,  0.00000,  0.00000,  0.00000,  0.00000,  1
1048,  1076,  '99',  0.38461,  2.52359,  0.00000,  0.00,  0.00,  0.00,  0.00000,  0.000,  0.00000,  0.00000,  0.00000,  0.00000,  1
1048,  1081,  '99',  0.48377,  3.17438,  0.00000,  0.00,  0.00,  0.00,  0.00000,  0.000,  0.00000,  0.00000,  0.00000,  0.00000,  1
1048,  3048,  '99',  0.33543,  2.08086,  0.00000,  0.00,  0.00,  0.00,  0.00000,  0.000,  0.00000,  0.00000,  0.00000,  0.00000,  1
1049,  1053,  '99',  -0.00807,  0.44823,  0.00000,  0.00,  0.00,  0.00,  0.00000,  0.000,  0.00000,  0.00000,  0.00000,  0.00000,  1
1049,  1076,  '99',  0.56407,  4.53441,  0.00000,  0.00,  0.00,  0.00,  0.00000,  0.000,  0.00000,  0.00000,  0.00000,  0.00000,  1
1049,  3048,  '99',  0.49785,  3.73980,  0.00000,  0.00,  0.00,  0.00,  0.00000,  0.000,  0.00000,  0.00000,  0.00000,  0.00000,  1
1053,  1076,  '99',  0.43079,  3.38863,  0.00000,  0.00,  0.00,  0.00,  0.00000,  0.000,  0.00000,  0.00000,  0.00000,  0.00000,  1
1053,  1081,  '99',  0.00298,  0.02979,  0.00000,  0.00,  0.00,  0.00,  0.00000,  0.000,  0.00000,  0.00000,  0.00000,  0.00000,  1
1053,  3048,  '99',  0.37969,  2.79475,  0.00000,  0.00,  0.00,  0.00,  0.00000,  0.000,  0.00000,  0.00000,  0.00000,  0.00000,  1
1072,  1073,  '99',  0.13312,  1.22259,  0.00000,  0.00,  0.00,  0.00,  0.00000,  0.000,  0.00000,  0.00000,  0.00000,  0.00000,  1
1072,  1074,  '99',  0.06442,  1.17170,  0.00000,  0.00,  0.00,  0.00,  0.00000,  0.000,  0.00000,  0.00000,  0.00000,  0.00000,  1
1072,  1075,  '99',  0.04335,  0.93787,  0.00000,  0.00,  0.00,  0.00,  0.00000,  0.000,  0.00000,  0.00000,  0.00000,  0.00000,  1
1072,  1076,  '99',  0.01735,  0.46459,  0.00000,  0.00,  0.00,  0.00,  0.00000,  0.000,  0.00000,  0.00000,  0.00000,  0.00000,  1
1072,  1077,  '99',  0.07030,  1.13343,  0.00000,  0.00,  0.00,  0.00,  0.00000,  0.000,  0.00000,  0.00000,  0.00000,  0.00000,  1
1072,  1081,  '99',  0.02262,  0.61090,  0.00000,  0.00,  0.00,  0.00,  0.00000,  0.000,  0.00000,  0.00000,  0.00000,  0.00000,  1
1072,  3048,  '99',  0.01810,  0.45819,  0.00000,  0.00,  0.00,  0.00,  0.00000,  0.000,  0.00000,  0.00000,  0.00000,  0.00000,  1
1073,  1074,  '99',  0.16584,  1.78179,  0.00000,  0.00,  0.00,  0.00,  0.00000,  0.000,  0.00000,  0.00000,  0.00000,  0.00000,  1
1073,  1075,  '99',  0.12023,  1.42667,  0.00000,  0.00,  0.00,  0.00,  0.00000,  0.000,  0.00000,  0.00000,  0.00000,  0.00000,  1
1073,  1076,  '99',  0.05328,  0.70697,  0.00000,  0.00,  0.00,  0.00,  0.00000,  0.000,  0.00000,  0.00000,  0.00000,  0.00000,  1
1073,  1077,  '99',  0.17259,  1.72313,  0.00000,  0.00,  0.00,  0.00,  0.00000,  0.000,  0.00000,  0.00000,  0.00000,  0.00000,  1
1073,  1081,  '99',  0.06975,  0.92962,  0.00000,  0.00,  0.00,  0.00,  0.00000,  0.000,  0.00000,  0.00000,  0.00000,  0.00000,  1
1073,  3048,  '99',  0.05404,  0.69717,  0.00000,  0.00,  0.00,  0.00,  0.00000,  0.000,  0.00000,  0.00000,  0.00000,  0.00000,  1
1074,  1075,  '99',  0.04173,  1.36550,  0.00000,  0.00,  0.00,  0.00,  0.00000,  0.000,  0.00000,  0.00000,  0.00000,  0.00000,  1
1074,  1076,  '99',  0.01467,  0.67634,  0.00000,  0.00,  0.00,  0.00,  0.00000,  0.000,  0.00000,  0.00000,  0.00000,  0.00000,  1
1074,  1077,  '99',  0.07648,  1.65064,  0.00000,  0.00,  0.00,  0.00,  0.00000,  0.000,  0.00000,  0.00000,  0.00000,  0.00000,  1
1074,  1081,  '99',  0.01900,  0.88932,  0.00000,  0.00,  0.00,  0.00,  0.00000,  0.000,  0.00000,  0.00000,  0.00000,  0.00000,  1
1074,  3048,  '99',  0.01590,  0.66704,  0.00000,  0.00,  0.00,  0.00,  0.00000,  0.000,  0.00000,  0.00000,  0.00000,  0.00000,  1
1075,  1076,  '99',  0.00701,  0.54120,  0.00000,  0.00,  0.00,  0.00,  0.00000,  0.000,  0.00000,  0.00000,  0.00000,  0.00000,  1
1075,  1077,  '99',  0.04965,  1.32113,  0.00000,  0.00,  0.00,  0.00,  0.00000,  0.000,  0.00000,  0.00000,  0.00000,  0.00000,  1
1075,  1081,  '99',  0.00899,  0.71163,  0.00000,  0.00,  0.00,  0.00,  0.00000,  0.000,  0.00000,  0.00000,  0.00000,  0.00000,  1
1075,  3048,  '99',  0.00806,  0.53377,  0.00000,  0.00,  0.00,  0.00,  0.00000,  0.000,  0.00000,  0.00000,  0.00000,  0.00000,  1
1076,  1077,  '99',  0.01879,  0.65440,  0.00000,  0.00,  0.00,  0.00,  0.00000,  0.000,  0.00000,  0.00000,  0.00000,  0.00000,  1
1076,  1081,  '99',  0.00133,  0.35242,  0.00000,  0.00,  0.00,  0.00,  0.00000,  0.000,  0.00000,  0.00000,  0.00000,  0.00000,  1
1076,  3048,  '99',  0.00165,  0.26434,  0.00000,  0.00,  0.00,  0.00,  0.00000,  0.000,  0.00000,  0.00000,  0.00000,  0.00000,  1
1077,  1081,  '99',  0.02443,  0.86047,  0.00000,  0.00,  0.00,  0.00,  0.00000,  0.000,  0.00000,  0.00000,  0.00000,  0.00000,  1
1077,  3048,  '99',  0.01991,  0.64539,  0.00000,  0.00,  0.00,  0.00,  0.00000,  0.000,  0.00000,  0.00000,  0.00000,  0.00000,  1
1081,  3008,  '99',  1.09047,  4.64938,  0.00000,  0.00,  0.00,  0.00,  0.00000,  0.000,  0.00000,  0.00000,  0.00000,  0.00000,  1
1081,  3018,  '99',  0.05248,  0.52256,  0.00000,  0.00,  0.00,  0.00,  0.00000,  0.000,  0.00000,  0.00000,  0.00000,  0.00000,  1
1081,  3019,  '99',  0.48372,  3.40910,  0.00000,  0.00,  0.00,  0.00,  0.00000,  0.000,  0.00000,  0.00000,  0.00000,  0.00000,  1
1081,  3028,  '99',  0.31630,  2.94174,  0.00000,  0.00,  0.00,  0.00,  0.00000,  0.000,  0.00000,  0.00000,  0.00000,  0.00000,  1
1081,  3045,  '99',  0.03288,  0.76210,  0.00000,  0.00,  0.00,  0.00,  0.00000,  0.000,  0.00000,  0.00000,  0.00000,  0.00000,  1
1081,  3048,  '99',  0.00961,  0.15156,  0.00000,  0.00,  0.00,  0.00,  0.00000,  0.000,  0.00000,  0.00000,  0.00000,  0.00000,  1
1081,  5399,  '99',  0.07564,  1.52066,  0.00000,  0.00,  0.00,  0.00,  0.00000,  0.000,  0.00000,  0.00000,  0.00000,  0.00000,  1
2004,  2005,  '99',  -0.00118,  0.09474,  0.00000,  0.00,  0.00,  0.00,  0.00000,  0.000,  0.00000,  0.00000,  0.00000,  0.00000,  1
2004,  2006,  '99',  -0.00271,  0.14806,  0.00000,  0.00,  0.00,  0.00,  0.00000,  0.000,  0.00000,  0.00000,  0.00000,  0.00000,  1
2004,  2024,  '99',  0.00862,  0.54307,  0.00000,  0.00,  0.00,  0.00,  0.00000,  0.000,  0.00000,  0.00000,  0.00000,  0.00000,  1
2004,  2103,  '99',  0.00058,  0.14674,  0.00000,  0.00,  0.00,  0.00,  0.00000,  0.000,  0.00000,  0.00000,  0.00000,  0.00000,  1
2004,  2104,  '99',  0.00042,  0.19221,  0.00000,  0.00,  0.00,  0.00,  0.00000,  0.000,  0.00000,  0.00000,  0.00000,  0.00000,  1
2004,  2105,  '99',  0.00303,  0.30335,  0.00000,  0.00,  0.00,  0.00,  0.00000,  0.000,  0.00000,  0.00000,  0.00000,  0.00000,  1
2004,  2115,  '99',  0.04158,  1.18084,  0.00000,  0.00,  0.00,  0.00,  0.00000,  0.000,  0.00000,  0.00000,  0.00000,  0.00000,  1
2004,  2116,  '99',  0.01763,  0.61552,  0.00000,  0.00,  0.00,  0.00,  0.00000,  0.000,  0.00000,  0.00000,  0.00000,  0.00000,  1
2004,  2117,  '99',  0.03396,  1.36757,  0.00000,  0.00,  0.00,  0.00,  0.00000,  0.000,  0.00000,  0.00000,  0.00000,  0.00000,  1
2004,  2118,  '99',  0.04264,  1.51439,  0.00000,  0.00,  0.00,  0.00,  0.00000,  0.000,  0.00000,  0.00000,  0.00000,  0.00000,  1
2004,  2119,  '99',  0.02181,  0.74919,  0.00000,  0.00,  0.00,  0.00,  0.00000,  0.000,  0.00000,  0.00000,  0.00000,  0.00000,  1
2004,  2120,  '99',  0.04359,  1.45535,  0.00000,  0.00,  0.00,  0.00,  0.00000,  0.000,  0.00000,  0.00000,  0.00000,  0.00000,  1
2004,  5021,  '99',  0.22065,  1.88548,  0.00000,  0.00,  0.00,  0.00,  0.00000,  0.000,  0.00000,  0.00000,  0.00000,  0.00000,  1
2004,  5037,  '99',  0.22222,  4.28480,  0.00000,  0.00,  0.00,  0.00,  0.00000,  0.000,  0.00000,  0.00000,  0.00000,  0.00000,  1
2004,  5038,  '99',  0.22060,  4.42257,  0.00000,  0.00,  0.00,  0.00,  0.00000,  0.000,  0.00000,  0.00000,  0.00000,  0.00000,  1
2004,  5039,  '99',  0.10507,  1.94491,  0.00000,  0.00,  0.00,  0.00,  0.00000,  0.000,  0.00000,  0.00000,  0.00000,  0.00000,  1
2004,  5041,  '99',  0.23306,  4.02309,  0.00000,  0.00,  0.00,  0.00,  0.00000,  0.000,  0.00000,  0.00000,  0.00000,  0.00000,  1
2004,  5042,  '99',  0.23313,  4.73986,  0.00000,  0.00,  0.00,  0.00,  0.00000,  0.000,  0.00000,  0.00000,  0.00000,  0.00000,  1
...